/*--------------------------------*- C++ -*----------------------------------*\
  Version:     12
  Format:      ascii
  Class:       dictionary
  Object:      regionProperties
\*---------------------------------------------------------------------------*/
FoamFile
{
    version     2.0;
    format      ascii;
    class       dictionary;
    object      regionProperties;
}

regions
(
    fluid       (fluid_polymer fluid_water)
    solid       (solid_mold)
);
