FoamFile { version 2.0; format ascii; class dictionary; object controlDict; }
application     injectionFoam;
startFrom       startTime;
startTime       0;
stopAt          endTime;
endTime         0.005;
deltaT          0.00001;
writeControl    adjustableRunTime;
writeInterval   0.01;
purgeWrite      0;
writeFormat     ascii;
writePrecision  6;
writeCompression off;
timeFormat      general;
timePrecision   6;
runTimeModifiable true;
