FoamFile { version 2.0; format ascii; class dictionary; object fvSchemes; }
ddtSchemes      { default Euler; }
gradSchemes     { default Gauss linear; }
divSchemes      { default none; div(phi,U) Gauss upwind; div(rhoPhi,U) Gauss upwind; div(phi,alpha) Gauss upwind; }
laplacianSchemes { default Gauss linear corrected; }
interpolationSchemes { default linear; }
snGradSchemes   { default corrected; }
fluxRequired
{
    default         none;
    p               ;
}
