FoamFile { version 2.0; format ascii; class dictionary; object controlDict; }
application     titanFoam;
startFrom       startTime;
startTime       0;
stopAt          endTime;
endTime         3.0;
deltaT          0.001;
writeControl    runTime;
writeInterval   0.1;
purgeWrite      3;
writeFormat     ascii;
writePrecision  6;
writeCompression off;
timeFormat      general;
timePrecision   6;
runTimeModifiable true;
adjustTimeStep  yes;
maxCo           0.5;
maxDeltaT       0.005;