FoamFile { version 2.0; format ascii; class dictionary; object fvSolution; }
solvers
{
    p     { solver PCG; preconditioner DIC; tolerance 1e-7; relTol 0.01; }
    U     { solver PBiCGStab; preconditioner DILU; tolerance 1e-6; relTol 0.05; }
    alpha { solver PBiCGStab; preconditioner DILU; tolerance 1e-5; relTol 0.05; }
    T     { solver PBiCGStab; preconditioner DILU; tolerance 1e-6; relTol 0.05; }
}
PIMPLE { nOuterCorrectors 3; nCorrectors 3; nNonOrthogonalCorrectors 1; }
relaxationFactors
{
    fields { p 0.5; }
    equations { U 0.8; alpha 0.9; T 0.8; }
}